goiania_leste_dss/TR1/CTMT_5001992.dss
! ==============================================================================
! ALIMENTADOR CTMT_5001992 - GOIANIA LESTE-10
! Subestacao: Trafo TR1 (GOL-S-TRF-TR1) | Barra MT: 1783 -> PAC_INI: 85521915001992
! ==============================================================================

! 1. Disjuntor de Saida MT do Alimentador
new line.DJ_5001992 phases=3 bus1=1783 bus2=85521915001992 switch=y r1=1e-4 x1=1e-4 length=0.001 units=km

! 2. Linhas de Media Tensao (MT)
new line.52875514 phases=3 bus1=80453005001992.1.2.3 bus2=80452995001992.1.2.3 r1=1.551 x1=0.49 length=0.02185 units=km normamps=114.0
new line.52875518 phases=3 bus1=80450845001992.1.2.3 bus2=80450855001992.1.2.3 r1=0.195 x1=0.4 length=0.032672 units=km normamps=419.0
new line.52875519 phases=3 bus1=80450865001992.1.2.3 bus2=95400115001992.1.2.3 r1=0.195 x1=0.4 length=0.00825 units=km normamps=419.0
new line.52875520 phases=3 bus1=80450905001992.1.2.3 bus2=80450845001992.1.2.3 r1=0.195 x1=0.4 length=0.026544 units=km normamps=419.0
new line.52875521 phases=3 bus1=80450915001992.1.2.3 bus2=80450905001992.1.2.3 r1=0.195 x1=0.4 length=0.036612 units=km normamps=419.0
new line.52875522 phases=3 bus1=80450925001992.1.2.3 bus2=80450915001992.1.2.3 r1=0.195 x1=0.4 length=0.034729 units=km normamps=419.0
new line.52875523 phases=3 bus1=80450935001992.1.2.3 bus2=80450925001992.1.2.3 r1=0.195 x1=0.4 length=0.036883 units=km normamps=419.0
new line.52875548 phases=3 bus1=80450005001992.1.2.3 bus2=80450015001992.1.2.3 r1=0.195 x1=0.4 length=0.034214 units=km normamps=419.0
new line.52875549 phases=3 bus1=80450025001992.1.2.3 bus2=80450015001992.1.2.3 r1=0.195 x1=0.4 length=0.027533 units=km normamps=419.0
new line.52875550 phases=3 bus1=80450035001992.1.2.3 bus2=80450025001992.1.2.3 r1=0.195 x1=0.4 length=0.028865 units=km normamps=419.0
new line.52875553 phases=3 bus1=80450065001992.1.2.3 bus2=80450055001992.1.2.3 r1=0.236 x1=0.27 length=0.025643 units=km normamps=456.0
new line.52875554 phases=3 bus1=80450075001992.1.2.3 bus2=80450065001992.1.2.3 r1=0.975 x1=0.47 length=0.009288 units=km normamps=152.0
new line.52875555 phases=3 bus1=80450085001992.1.2.3 bus2=80450065001992.1.2.3 r1=0.236 x1=0.27 length=0.029099 units=km normamps=456.0
new line.52875556 phases=3 bus1=80450095001992.1.2.3 bus2=80450085001992.1.2.3 r1=0.236 x1=0.27 length=0.025643 units=km normamps=456.0
new line.52875557 phases=3 bus1=80450165001992.1.2.3 bus2=80450045001992.1.2.3 r1=0.195 x1=0.4 length=0.036581 units=km normamps=419.0
new line.52875558 phases=3 bus1=80450175001992.1.2.3 bus2=86724525001992.1.2.3 r1=0.195 x1=0.4 length=0.034574 units=km normamps=419.0
new line.52875559 phases=3 bus1=80450245001992.1.2.3 bus2=80450195001992.1.2.3 r1=0.195 x1=0.4 length=0.026996 units=km normamps=419.0
new line.52875560 phases=3 bus1=80450255001992.1.2.3 bus2=80450245001992.1.2.3 r1=0.195 x1=0.4 length=0.036655 units=km normamps=419.0
new line.52875561 phases=3 bus1=80450265001992.1.2.3 bus2=80450255001992.1.2.3 r1=0.195 x1=0.4 length=0.045386 units=km normamps=419.0
new line.52875562 phases=3 bus1=80450275001992.1.2.3 bus2=80450265001992.1.2.3 r1=0.195 x1=0.4 length=0.039706 units=km normamps=419.0
new line.52875563 phases=3 bus1=80450185001992.1.2.3 bus2=80450175001992.1.2.3 r1=0.195 x1=0.4 length=0.039352 units=km normamps=419.0
new line.52875564 phases=3 bus1=80450185001992.1.2.3 bus2=80450195001992.1.2.3 r1=0.195 x1=0.4 length=0.039125 units=km normamps=419.0
new line.52875567 phases=3 bus1=80450785001992.1.2.3 bus2=80450775001992.1.2.3 r1=0.188 x1=0.26 length=0.024491 units=km normamps=525.0
new line.52875568 phases=3 bus1=80450835001992.1.2.3 bus2=80450775001992.1.2.3 r1=0.188 x1=0.26 length=0.024514 units=km normamps=525.0
new line.52875569 phases=3 bus1=80450005001992.1.2.3 bus2=80450835001992B.1.2.3 r1=0.195 x1=0.4 length=0.030535 units=km normamps=419.0
new line.52875778 phases=3 bus1=80459175001992.1.2.3 bus2=80459165001992.1.2.3 r1=0.188 x1=0.26 length=0.041971 units=km normamps=525.0
new line.52875779 phases=3 bus1=80459165001992.1.2.3 bus2=80459155001992.1.2.3 r1=0.188 x1=0.26 length=0.042614 units=km normamps=525.0
new line.52875780 phases=3 bus1=80459155001992.1.2.3 bus2=80459145001992.1.2.3 r1=0.188 x1=0.26 length=0.039695 units=km normamps=525.0
new line.52875781 phases=3 bus1=80459145001992.1.2.3 bus2=80459135001992.1.2.3 r1=0.188 x1=0.26 length=0.051383 units=km normamps=525.0
new line.52875782 phases=3 bus1=80459135001992.1.2.3 bus2=80459265001992.1.2.3 r1=0.188 x1=0.26 length=0.045661 units=km normamps=525.0
new line.52875783 phases=3 bus1=80459265001992.1.2.3 bus2=80459275001992.1.2.3 r1=0.188 x1=0.26 length=0.039133 units=km normamps=525.0
new line.52875784 phases=3 bus1=80459275001992.1.2.3 bus2=80459285001992.1.2.3 r1=0.188 x1=0.26 length=0.041728 units=km normamps=525.0
new line.52875785 phases=3 bus1=80459285001992.1.2.3 bus2=80459115001992.1.2.3 r1=0.188 x1=0.26 length=0.031501 units=km normamps=525.0
new line.52875788 phases=3 bus1=80463625001992.1.2.3 bus2=80463635001992.1.2.3 r1=0.188 x1=0.26 length=0.03189 units=km normamps=525.0
new line.52875789 phases=3 bus1=80459115001992.1.2.3 bus2=80459125001992.1.2.3 r1=0.188 x1=0.26 length=0.044074 units=km normamps=525.0
new line.52875811 phases=3 bus1=80464245001992.1.2.3 bus2=80464225001992.1.2.3 r1=0.195 x1=0.4 length=0.022692 units=km normamps=419.0
new line.52875812 phases=3 bus1=80463695001992.1.2.3 bus2=80462255001992.1.2.3 r1=0.975 x1=0.47 length=0.044922 units=km normamps=152.0
new line.52875813 phases=3 bus1=80463705001992.1.2.3 bus2=80463695001992.1.2.3 r1=0.975 x1=0.47 length=0.021691 units=km normamps=152.0
new line.52875818 phases=3 bus1=80465795001992.1.2.3 bus2=80465785001992.1.2.3 r1=0.975 x1=0.47 length=0.038149 units=km normamps=152.0
new line.52875819 phases=3 bus1=80463425001992.1.2.3 bus2=80465865001992.1.2.3 r1=0.975 x1=0.47 length=0.0054 units=km normamps=152.0
new line.52875828 phases=3 bus1=80464815001992.1.2.3 bus2=80451025001992.1.2.3 r1=0.195 x1=0.4 length=0.036625 units=km normamps=419.0
new line.52875829 phases=3 bus1=80464235001992B.1.2.3 bus2=80464275001992.1.2.3 r1=0.975 x1=0.47 length=0.025769 units=km normamps=152.0
new line.52875833 phases=3 bus1=80459765001992.1.2.3 bus2=80459775001992.1.2.3 r1=0.195 x1=0.4 length=0.033285 units=km normamps=419.0
new line.52875834 phases=3 bus1=80459775001992.1.2.3 bus2=80459785001992.1.2.3 r1=0.195 x1=0.4 length=0.030677 units=km normamps=419.0
new line.52875835 phases=3 bus1=80459785001992.1.2.3 bus2=80459795001992.1.2.3 r1=0.195 x1=0.4 length=0.032693 units=km normamps=419.0
new line.52875836 phases=3 bus1=80459795001992.1.2.3 bus2=80459805001992.1.2.3 r1=0.195 x1=0.4 length=0.031633 units=km normamps=419.0
new line.52875837 phases=3 bus1=80459715001992.1.2.3 bus2=80459945001992.1.2.3 r1=0.195 x1=0.4 length=0.03615 units=km normamps=419.0
new line.52875838 phases=3 bus1=80459945001992.1.2.3 bus2=80459955001992.1.2.3 r1=0.195 x1=0.4 length=0.041268 units=km normamps=419.0
new line.52875839 phases=3 bus1=80459995001992.1.2.3 bus2=80459985001992.1.2.3 r1=0.195 x1=0.4 length=0.034734 units=km normamps=419.0
new line.52875840 phases=3 bus1=80459985001992.1.2.3 bus2=94618415001992.1.2.3 r1=0.195 x1=0.4 length=0.013103 units=km normamps=419.0
new line.52875841 phases=3 bus1=80463635001992.1.2.3 bus2=80463645001992.1.2.3 r1=0.188 x1=0.26 length=0.024711 units=km normamps=525.0
new line.52875842 phases=3 bus1=80463645001992.1.2.3 bus2=80463655001992.1.2.3 r1=0.188 x1=0.26 length=0.029857 units=km normamps=525.0
new line.52875843 phases=3 bus1=80463655001992.1.2.3 bus2=80463665001992.1.2.3 r1=0.188 x1=0.26 length=0.035259 units=km normamps=525.0
new line.52875844 phases=3 bus1=80463665001992.1.2.3 bus2=80463675001992.1.2.3 r1=0.188 x1=0.26 length=0.045415 units=km normamps=525.0
new line.52875845 phases=3 bus1=80463675001992.1.2.3 bus2=80459215001992.1.2.3 r1=0.188 x1=0.26 length=0.042666 units=km normamps=525.0
new line.52875846 phases=3 bus1=80459215001992.1.2.3 bus2=80459205001992.1.2.3 r1=0.188 x1=0.26 length=0.043479 units=km normamps=525.0
new line.52875847 phases=3 bus1=80459205001992.1.2.3 bus2=80459195001992.1.2.3 r1=0.188 x1=0.26 length=0.032326 units=km normamps=525.0
new line.52875848 phases=3 bus1=80459195001992.1.2.3 bus2=80459185001992.1.2.3 r1=0.188 x1=0.26 length=0.035713 units=km normamps=525.0
new line.52875849 phases=3 bus1=80459185001992.1.2.3 bus2=80459175001992.1.2.3 r1=0.188 x1=0.26 length=0.052783 units=km normamps=525.0
new line.52875850 phases=3 bus1=80459995001992.1.2.3 bus2=80460235001992.1.2.3 r1=0.195 x1=0.4 length=0.026763 units=km normamps=419.0
new line.52875851 phases=3 bus1=80460235001992.1.2.3 bus2=80460245001992.1.2.3 r1=0.195 x1=0.4 length=0.019536 units=km normamps=419.0
new line.52875852 phases=3 bus1=80460275001992.1.2.3 bus2=80460345001992.1.2.3 r1=0.975 x1=0.47 length=0.030563 units=km normamps=152.0
new line.52875853 phases=3 bus1=80460245001992.1.2.3 bus2=80460275001992.1.2.3 r1=0.195 x1=0.4 length=0.039827 units=km normamps=419.0
new line.52875854 phases=3 bus1=80460275001992.1.2.3 bus2=80460285001992.1.2.3 r1=0.195 x1=0.4 length=0.034729 units=km normamps=419.0
new line.52875855 phases=3 bus1=80460285001992.1.2.3 bus2=80460315001992.1.2.3 r1=0.195 x1=0.4 length=0.040594 units=km normamps=419.0
new line.52875856 phases=3 bus1=80460445001992.1.2.3 bus2=80460435001992.1.2.3 r1=0.975 x1=0.47 length=0.030924 units=km normamps=152.0
new line.52875857 phases=3 bus1=80460455001992.1.2.3 bus2=80460445001992.1.2.3 r1=0.975 x1=0.47 length=0.0311 units=km normamps=152.0
new line.52875858 phases=3 bus1=80460465001992.1.2.3 bus2=80460455001992.1.2.3 r1=0.975 x1=0.47 length=0.037627 units=km normamps=152.0
new line.52875859 phases=3 bus1=80460465001992.1.2.3 bus2=80460475001992.1.2.3 r1=0.975 x1=0.47 length=0.028915 units=km normamps=152.0
new line.52875860 phases=3 bus1=80460495001992.1.2.3 bus2=84030175001992.1.2.3 r1=0.975 x1=0.47 length=0.025736 units=km normamps=152.0
new line.52875861 phases=3 bus1=80460525001992.1.2.3 bus2=80460495001992.1.2.3 r1=0.975 x1=0.47 length=0.028282 units=km normamps=152.0
new line.52875862 phases=3 bus1=80460545001992.1.2.3 bus2=80460535001992.1.2.3 r1=0.975 x1=0.47 length=0.034729 units=km normamps=152.0
new line.52875863 phases=3 bus1=80460535001992.1.2.3 bus2=80460525001992.1.2.3 r1=0.975 x1=0.47 length=0.03326 units=km normamps=152.0
new line.52875864 phases=3 bus1=80460555001992.1.2.3 bus2=80460545001992.1.2.3 r1=0.975 x1=0.47 length=0.018855 units=km normamps=152.0
new line.52875865 phases=3 bus1=80459795001992.1.2.3 bus2=80459835001992.1.2.3 r1=0.975 x1=0.47 length=0.033167 units=km normamps=152.0
new line.52875866 phases=3 bus1=80459835001992B.1.2.3 bus2=80460565001992.1.2.3 r1=0.975 x1=0.47 length=0.018459 units=km normamps=152.0
new line.52875867 phases=3 bus1=80460565001992.1.2.3 bus2=80460575001992.1.2.3 r1=0.975 x1=0.47 length=0.020451 units=km normamps=152.0
new line.52875868 phases=3 bus1=80462265001992.1.2.3 bus2=80462255001992.1.2.3 r1=0.975 x1=0.47 length=0.045282 units=km normamps=152.0
new line.52875869 phases=3 bus1=80462285001992.1.2.3 bus2=80462275001992.1.2.3 r1=0.975 x1=0.47 length=0.033744 units=km normamps=152.0
new line.52875870 phases=3 bus1=80462295001992.1.2.3 bus2=80462285001992.1.2.3 r1=0.975 x1=0.47 length=0.038977 units=km normamps=152.0
new line.52875871 phases=3 bus1=80462305001992.1.2.3 bus2=80462295001992.1.2.3 r1=0.975 x1=0.47 length=0.050933 units=km normamps=152.0
new line.52875872 phases=3 bus1=80462315001992.1.2.3 bus2=80462305001992.1.2.3 r1=0.975 x1=0.47 length=0.035496 units=km normamps=152.0
new line.52875873 phases=3 bus1=80459125001992.1.2.3 bus2=80465305001992.1.2.3 r1=0.188 x1=0.26 length=0.040899 units=km normamps=525.0
new line.52875874 phases=3 bus1=80465305001992.1.2.3 bus2=80465335001992.1.2.3 r1=0.188 x1=0.26 length=0.040177 units=km normamps=525.0
new line.52875875 phases=3 bus1=80465335001992.1.2.3 bus2=80465325001992.1.2.3 r1=0.188 x1=0.26 length=0.049168 units=km normamps=525.0
new line.52875876 phases=3 bus1=80465325001992.1.2.3 bus2=80465315001992.1.2.3 r1=0.188 x1=0.26 length=0.036954 units=km normamps=525.0
new line.52875877 phases=3 bus1=80465315001992.1.2.3 bus2=80465295001992.1.2.3 r1=0.188 x1=0.26 length=0.03799 units=km normamps=525.0
new line.52875878 phases=3 bus1=80465295001992.1.2.3 bus2=80465285001992.1.2.3 r1=0.188 x1=0.26 length=0.038928 units=km normamps=525.0
new line.52875879 phases=3 bus1=80465285001992.1.2.3 bus2=80465185001992.1.2.3 r1=0.188 x1=0.26 length=0.036954 units=km normamps=525.0
new line.52875880 phases=3 bus1=80465185001992.1.2.3 bus2=80465195001992.1.2.3 r1=0.188 x1=0.26 length=0.031749 units=km normamps=525.0
new line.52875881 phases=3 bus1=80465195001992.1.2.3 bus2=80465235001992.1.2.3 r1=0.188 x1=0.26 length=0.02628 units=km normamps=525.0
new line.52875882 phases=3 bus1=80465235001992.1.2.3 bus2=80465275001992.1.2.3 r1=0.188 x1=0.26 length=0.049602 units=km normamps=525.0
new line.52875883 phases=3 bus1=80465275001992.1.2.3 bus2=80465265001992.1.2.3 r1=0.188 x1=0.26 length=0.034977 units=km normamps=525.0
new line.52875884 phases=3 bus1=80465265001992.1.2.3 bus2=80465255001992.1.2.3 r1=0.188 x1=0.26 length=0.028512 units=km normamps=525.0
new line.52875885 phases=3 bus1=80465255001992.1.2.3 bus2=80465245001992.1.2.3 r1=0.188 x1=0.26 length=0.032738 units=km normamps=525.0
new line.52875886 phases=3 bus1=80465245001992.1.2.3 bus2=80465205001992.1.2.3 r1=0.188 x1=0.26 length=0.042711 units=km normamps=525.0
new line.52875887 phases=3 bus1=80465205001992.1.2.3 bus2=80465215001992.1.2.3 r1=0.188 x1=0.26 length=0.035444 units=km normamps=525.0
new line.52875888 phases=3 bus1=80465215001992.1.2.3 bus2=80465225001992.1.2.3 r1=0.188 x1=0.26 length=0.037955 units=km normamps=525.0
new line.52875889 phases=3 bus1=80465225001992.1.2.3 bus2=80465345001992.1.2.3 r1=0.188 x1=0.26 length=0.047435 units=km normamps=525.0
new line.52875890 phases=3 bus1=80465775001992.1.2.3 bus2=80463485001992.1.2.3 r1=0.188 x1=0.26 length=0.029279 units=km normamps=525.0
new line.52875891 phases=3 bus1=80463485001992.1.2.3 bus2=80463495001992.1.2.3 r1=0.188 x1=0.26 length=0.02628 units=km normamps=525.0
new line.52875892 phases=3 bus1=80463495001992.1.2.3 bus2=80463505001992.1.2.3 r1=0.188 x1=0.26 length=0.033495 units=km normamps=525.0
new line.52875893 phases=3 bus1=80465405001992.1.2.3 bus2=80444075001992.1.2.3 r1=0.188 x1=0.26 length=0.017024 units=km normamps=525.0
new line.52875894 phases=3 bus1=80460715001992.1.2.3 bus2=80460705001992.1.2.3 r1=0.975 x1=0.47 length=0.018792 units=km normamps=152.0
new line.52875895 phases=3 bus1=80460705001992.1.2.3 bus2=80460695001992.1.2.3 r1=0.975 x1=0.47 length=0.030319 units=km normamps=152.0
new line.52875896 phases=3 bus1=80460725001992.1.2.3 bus2=80460715001992.1.2.3 r1=0.975 x1=0.47 length=0.013293 units=km normamps=152.0
new line.52875898 phases=3 bus1=80460585001992.1.2.3 bus2=80460635001992.1.2.3 r1=0.975 x1=0.47 length=0.03233 units=km normamps=152.0
new line.52875899 phases=3 bus1=80460635001992.1.2.3 bus2=80460725001992.1.2.3 r1=0.975 x1=0.47 length=0.021474 units=km normamps=152.0
new line.52875900 phases=3 bus1=80462275001992.1.2.3 bus2=80462265001992.1.2.3 r1=0.975 x1=0.47 length=0.033749 units=km normamps=152.0
new line.52875902 phases=3 bus1=80465415001992.1.2.3 bus2=80466195001992.1.2.3 r1=0.236 x1=0.27 length=0.025344 units=km normamps=456.0
new line.52875903 phases=3 bus1=80463085001992.1.2.3 bus2=80463075001992.1.2.3 r1=0.975 x1=0.47 length=0.018848 units=km normamps=152.0
new line.52875904 phases=3 bus1=80463095001992.1.2.3 bus2=80463085001992.1.2.3 r1=0.975 x1=0.47 length=0.020245 units=km normamps=152.0
new line.52875905 phases=3 bus1=80463105001992.1.2.3 bus2=80463095001992.1.2.3 r1=0.975 x1=0.47 length=0.025255 units=km normamps=152.0
new line.52875906 phases=3 bus1=80463065001992.1.2.3 bus2=80463105001992.1.2.3 r1=0.975 x1=0.47 length=0.030694 units=km normamps=152.0
new line.52875907 phases=3 bus1=80463115001992.1.2.3 bus2=80463065001992.1.2.3 r1=0.975 x1=0.47 length=0.025584 units=km normamps=152.0
new line.52875908 phases=3 bus1=80463075001992.1.2.3 bus2=80463145001992.1.2.3 r1=1.551 x1=0.49 length=0.011061 units=km normamps=114.0
new line.52875909 phases=3 bus1=80463145001992.1.2.3 bus2=80463155001992.1.2.3 r1=1.551 x1=0.49 length=0.036928 units=km normamps=114.0
new line.52875910 phases=3 bus1=80463155001992.1.2.3 bus2=80463165001992.1.2.3 r1=1.551 x1=0.49 length=0.042214 units=km normamps=114.0
new line.52875917 phases=3 bus1=80452805001992.1.2.3 bus2=80452785001992.1.2.3 r1=0.975 x1=0.47 length=0.034287 units=km normamps=152.0
new line.52875918 phases=3 bus1=80452805001992.1.2.3 bus2=80452815001992.1.2.3 r1=0.975 x1=0.47 length=0.026184 units=km normamps=152.0
new line.52875919 phases=3 bus1=80452815001992.1.2.3 bus2=80452825001992.1.2.3 r1=0.975 x1=0.47 length=0.042161 units=km normamps=152.0
new line.52875920 phases=3 bus1=80452825001992.1.2.3 bus2=80461875001992.1.2.3 r1=0.975 x1=0.47 length=0.032543 units=km normamps=152.0
new line.52875921 phases=3 bus1=80465425001992B.1.2.3 bus2=80465435001992.1.2.3 r1=0.195 x1=0.4 length=0.026841 units=km normamps=419.0
new line.52875922 phases=3 bus1=80465435001992.1.2.3 bus2=80465445001992.1.2.3 r1=0.195 x1=0.4 length=0.013908 units=km normamps=419.0
new line.52875923 phases=3 bus1=80465435001992.1.2.3 bus2=80465455001992.1.2.3 r1=0.975 x1=0.47 length=0.013643 units=km normamps=152.0
new line.52875924 phases=3 bus1=80465475001992.1.2.3 bus2=80465485001992.1.2.3 r1=0.975 x1=0.47 length=0.018959 units=km normamps=152.0
new line.52875925 phases=3 bus1=80465485001992.1.2.3 bus2=80465495001992.1.2.3 r1=0.975 x1=0.47 length=0.011969 units=km normamps=152.0
new line.52875926 phases=3 bus1=80465505001992.1.2.3 bus2=80465495001992.1.2.3 r1=0.975 x1=0.47 length=0.007608 units=km normamps=152.0
new line.52875927 phases=3 bus1=80465435001992.1.2.3 bus2=80465515001992.1.2.3 r1=0.975 x1=0.47 length=0.019911 units=km normamps=152.0
new line.52875945 phases=3 bus1=80451025001992.1.2.3 bus2=80450935001992.1.2.3 r1=0.195 x1=0.4 length=0.030289 units=km normamps=419.0
new line.52875946 phases=3 bus1=80452855001992.1.2.3 bus2=80463115001992.1.2.3 r1=0.975 x1=0.47 length=0.025645 units=km normamps=152.0
new line.52875947 phases=3 bus1=80452855001992.1.2.3 bus2=80452865001992.1.2.3 r1=1.551 x1=0.49 length=0.016765 units=km normamps=114.0
new line.52875948 phases=3 bus1=80452865001992.1.2.3 bus2=80452875001992.1.2.3 r1=1.551 x1=0.49 length=0.035302 units=km normamps=114.0
new line.52875949 phases=3 bus1=80452885001992.1.2.3 bus2=80462315001992.1.2.3 r1=1.551 x1=0.49 length=0.043719 units=km normamps=114.0
new line.52875950 phases=3 bus1=80452875001992.1.2.3 bus2=80452885001992.1.2.3 r1=1.551 x1=0.49 length=0.032109 units=km normamps=114.0
new line.52875951 phases=3 bus1=80452855001992.1.2.3 bus2=80452895001992.1.2.3 r1=0.984 x1=0.49 length=0.040515 units=km normamps=170.0
new line.52875952 phases=3 bus1=80452905001992.1.2.3 bus2=80452895001992.1.2.3 r1=0.984 x1=0.49 length=0.036712 units=km normamps=170.0
new line.52875953 phases=3 bus1=80452925001992.1.2.3 bus2=80452905001992.1.2.3 r1=0.984 x1=0.49 length=0.02306 units=km normamps=170.0
new line.52875954 phases=3 bus1=80452935001992.1.2.3 bus2=80452925001992.1.2.3 r1=1.551 x1=0.49 length=0.02186 units=km normamps=114.0
new line.52875955 phases=3 bus1=80452945001992.1.2.3 bus2=80452935001992.1.2.3 r1=1.551 x1=0.49 length=0.035141 units=km normamps=114.0
new line.52875956 phases=3 bus1=80452965001992.1.2.3 bus2=80452945001992.1.2.3 r1=1.551 x1=0.49 length=0.020856 units=km normamps=114.0
new line.52875957 phases=3 bus1=80452975001992.1.2.3 bus2=80452965001992.1.2.3 r1=1.551 x1=0.49 length=0.024303 units=km normamps=114.0
new line.52875958 phases=3 bus1=80452995001992.1.2.3 bus2=80452975001992.1.2.3 r1=1.551 x1=0.49 length=0.030092 units=km normamps=114.0
new line.52875959 phases=3 bus1=80463225001992.1.2.3 bus2=80453005001992.1.2.3 r1=1.551 x1=0.49 length=0.02307 units=km normamps=114.0
new line.52875960 phases=3 bus1=80463245001992.1.2.3 bus2=80463225001992.1.2.3 r1=1.551 x1=0.49 length=0.04071 units=km normamps=114.0
new line.52875961 phases=3 bus1=80452785001992.1.2.3 bus2=80463245001992.1.2.3 r1=1.551 x1=0.49 length=0.033119 units=km normamps=114.0
new line.52875962 phases=3 bus1=80465555001992.1.2.3 bus2=80465565001992.1.2.3 r1=0.975 x1=0.47 length=0.033047 units=km normamps=152.0
new line.52875963 phases=3 bus1=80465565001992.1.2.3 bus2=80465575001992B.1.2.3 r1=0.975 x1=0.47 length=0.043621 units=km normamps=152.0
new line.52875964 phases=3 bus1=80465595001992.1.2.3 bus2=80465585001992.1.2.3 r1=0.195 x1=0.4 length=0.012346 units=km normamps=419.0
new line.52875965 phases=3 bus1=80465575001992.1.2.3 bus2=80465585001992.1.2.3 r1=0.975 x1=0.47 length=0.032336 units=km normamps=152.0
new line.52875966 phases=3 bus1=80465445001992.1.2.3 bus2=80465605001992.1.2.3 r1=0.195 x1=0.4 length=0.019749 units=km normamps=419.0
new line.52875967 phases=3 bus1=80465605001992.1.2.3 bus2=80465595001992.1.2.3 r1=0.195 x1=0.4 length=0.030403 units=km normamps=419.0
new line.52875968 phases=3 bus1=80465585001992.1.2.3 bus2=80465615001992B.1.2.3 r1=0.195 x1=0.4 length=0.033802 units=km normamps=419.0
new line.52875969 phases=3 bus1=80465585001992.1.2.3 bus2=80465625001992.1.2.3 r1=0.975 x1=0.47 length=0.010071 units=km normamps=152.0
new line.52875970 phases=3 bus1=80465625001992B.1.2.3 bus2=83085665001992.1.2.3 r1=0.975 x1=0.47 length=0.023005 units=km normamps=152.0
new line.52875972 phases=3 bus1=80459715001992.1.2.3 bus2=80459745001992.1.2.3 r1=0.195 x1=0.4 length=0.012312 units=km normamps=419.0
new line.52875973 phases=3 bus1=80459745001992.1.2.3 bus2=80459725001992.1.2.3 r1=0.195 x1=0.4 length=0.043407 units=km normamps=419.0
new line.52875974 phases=3 bus1=80459695001992.1.2.3 bus2=80459745001992.1.2.3 r1=0.195 x1=0.4 length=0.008502 units=km normamps=419.0
new line.52875975 phases=3 bus1=80459745001992.1.2.3 bus2=80459735001992.1.2.3 r1=0.195 x1=0.4 length=0.041365 units=km normamps=419.0
new line.52875983 phases=3 bus1=80464195001992.1.2.3 bus2=80464215001992.1.2.3 r1=0.195 x1=0.4 length=0.0549 units=km normamps=419.0
new line.52875984 phases=3 bus1=80464215001992.1.2.3 bus2=80464245001992.1.2.3 r1=0.195 x1=0.4 length=0.024932 units=km normamps=419.0
new line.52875985 phases=3 bus1=80464245001992.1.2.3 bus2=80464265001992.1.2.3 r1=0.195 x1=0.4 length=0.015113 units=km normamps=419.0
new line.52875986 phases=3 bus1=80464265001992.1.2.3 bus2=80459815001992.1.2.3 r1=0.195 x1=0.4 length=0.038299 units=km normamps=419.0
new line.52875987 phases=3 bus1=80464275001992.1.2.3 bus2=80464285001992.1.2.3 r1=0.975 x1=0.47 length=0.033764 units=km normamps=152.0
new line.52875988 phases=3 bus1=80464285001992.1.2.3 bus2=80464315001992.1.2.3 r1=0.975 x1=0.47 length=0.041119 units=km normamps=152.0
new line.52875990 phases=3 bus1=80464315001992.1.2.3 bus2=80464345001992.1.2.3 r1=0.975 x1=0.47 length=0.024893 units=km normamps=152.0
new line.52875991 phases=3 bus1=80464425001992.1.2.3 bus2=80459725001992.1.2.3 r1=0.195 x1=0.4 length=0.040551 units=km normamps=419.0
new line.52875992 phases=3 bus1=80464435001992.1.2.3 bus2=80464425001992B.1.2.3 r1=0.195 x1=0.4 length=0.037015 units=km normamps=419.0
new line.52875993 phases=3 bus1=80464475001992.1.2.3 bus2=80464435001992.1.2.3 r1=0.195 x1=0.4 length=0.033799 units=km normamps=419.0
new line.52875994 phases=3 bus1=80463415001992.1.2.3 bus2=80463425001992.1.2.3 r1=0.975 x1=0.47 length=0.019749 units=km normamps=152.0
new line.52875995 phases=3 bus1=80465485001992.1.2.3 bus2=80463415001992.1.2.3 r1=0.975 x1=0.47 length=0.033636 units=km normamps=152.0
new line.52875996 phases=3 bus1=80463415001992.1.2.3 bus2=80465455001992B.1.2.3 r1=0.975 x1=0.47 length=0.050501 units=km normamps=152.0
new line.52876009 phases=3 bus1=80460315001992.1.2.3 bus2=80461165001992.1.2.3 r1=0.195 x1=0.4 length=0.017413 units=km normamps=419.0
new line.52876010 phases=3 bus1=80461165001992.1.2.3 bus2=80461175001992.1.2.3 r1=0.195 x1=0.4 length=0.018083 units=km normamps=419.0
new line.52876015 phases=3 bus1=80464175001992.1.2.3 bus2=80464185001992.1.2.3 r1=0.195 x1=0.4 length=0.039282 units=km normamps=419.0
new line.52876016 phases=3 bus1=80464825001992.1.2.3 bus2=80464175001992.1.2.3 r1=0.195 x1=0.4 length=0.033173 units=km normamps=419.0
new line.52876017 phases=3 bus1=80464815001992.1.2.3 bus2=80464825001992.1.2.3 r1=0.195 x1=0.4 length=0.046641 units=km normamps=419.0
new line.52876018 phases=3 bus1=80464195001992.1.2.3 bus2=80464185001992.1.2.3 r1=0.195 x1=0.4 length=0.030504 units=km normamps=419.0
new line.52876019 phases=3 bus1=80464235001992.1.2.3 bus2=80464245001992.1.2.3 r1=0.195 x1=0.4 length=0.007904 units=km normamps=419.0
new line.52876020 phases=3 bus1=80459815001992.1.2.3 bus2=80459805001992.1.2.3 r1=0.195 x1=0.4 length=0.053506 units=km normamps=419.0
new line.52876028 phases=3 bus1=80463505001992.1.2.3 bus2=80463515001992.1.2.3 r1=0.188 x1=0.26 length=0.045574 units=km normamps=525.0
new line.52876029 phases=3 bus1=80463515001992.1.2.3 bus2=80465405001992.1.2.3 r1=0.188 x1=0.26 length=0.029728 units=km normamps=525.0
new line.52876034 phases=3 bus1=80461545001992.1.2.3 bus2=80461525001992.1.2.3 r1=1.551 x1=0.49 length=0.033383 units=km normamps=114.0
new line.52876035 phases=3 bus1=80461535001992.1.2.3 bus2=80461545001992.1.2.3 r1=1.551 x1=0.49 length=0.014278 units=km normamps=114.0
new line.52876036 phases=3 bus1=80461545001992.1.2.3 bus2=80461555001992.1.2.3 r1=1.551 x1=0.49 length=0.016468 units=km normamps=114.0
new line.52876037 phases=3 bus1=80461565001992.1.2.3 bus2=80461545001992.1.2.3 r1=1.551 x1=0.49 length=0.029647 units=km normamps=114.0
new line.52876038 phases=3 bus1=80461575001992.1.2.3 bus2=80461535001992.1.2.3 r1=1.551 x1=0.49 length=0.037145 units=km normamps=114.0
new line.52876039 phases=3 bus1=80461585001992.1.2.3 bus2=80461575001992.1.2.3 r1=1.551 x1=0.49 length=0.036993 units=km normamps=114.0
new line.52876040 phases=3 bus1=80461605001992.1.2.3 bus2=80461585001992.1.2.3 r1=1.551 x1=0.49 length=0.020179 units=km normamps=114.0
new line.52876041 phases=3 bus1=80461265001992.1.2.3 bus2=80461605001992.1.2.3 r1=1.551 x1=0.49 length=0.02108 units=km normamps=114.0
new line.52876042 phases=3 bus1=80461785001992.1.2.3 bus2=80461795001992.1.2.3 r1=0.195 x1=0.4 length=0.039774 units=km normamps=419.0
new line.52876043 phases=3 bus1=80461795001992.1.2.3 bus2=80461805001992.1.2.3 r1=0.195 x1=0.4 length=0.035496 units=km normamps=419.0
new line.52876044 phases=3 bus1=80461815001992.1.2.3 bus2=80461805001992.1.2.3 r1=0.195 x1=0.4 length=0.009414 units=km normamps=419.0
new line.52876045 phases=3 bus1=80461825001992.1.2.3 bus2=80461805001992.1.2.3 r1=0.195 x1=0.4 length=0.056465 units=km normamps=419.0
new line.52876046 phases=3 bus1=80461825001992B.1.2.3 bus2=80461265001992.1.2.3 r1=1.551 x1=0.49 length=0.061353 units=km normamps=114.0
new line.52876047 phases=3 bus1=80461825001992.1.2.3 bus2=80461835001992.1.2.3 r1=0.195 x1=0.4 length=0.057862 units=km normamps=419.0
new line.52876048 phases=3 bus1=80461845001992.1.2.3 bus2=80461835001992B.1.2.3 r1=0.613 x1=0.45 length=0.01636 units=km normamps=203.0
new line.52876049 phases=3 bus1=80461845001992.1.2.3 bus2=80461855001992.1.2.3 r1=0.613 x1=0.45 length=0.023958 units=km normamps=203.0
new line.52876050 phases=3 bus1=80461865001992.1.2.3 bus2=97800015001992.1.2.3 r1=0.613 x1=0.45 length=0.008184 units=km normamps=203.0
new line.52876051 phases=3 bus1=80461875001992.1.2.3 bus2=80461865001992.1.2.3 r1=0.613 x1=0.45 length=0.042663 units=km normamps=203.0
...

! 3. Chaves Seccionadoras MT
new line.SC_5270771 phases=3 bus1=80450835001992.1.2.3 bus2=80450835001992B.1.2.3 switch=y r1=1e-4 x1=1e-4 length=0.001 units=km
new line.SC_5270773 phases=3 bus1=80454115001992.1.2.3 bus2=80454115001992B.1.2.3 switch=y r1=1e-4 x1=1e-4 length=0.001 units=km
new line.SC_5270776 phases=3 bus1=80465415001992.1.2.3 bus2=80465415001992B.1.2.3 switch=y r1=1e-4 x1=1e-4 length=0.001 units=km
new line.SC_5270777 phases=3 bus1=80465425001992.1.2.3 bus2=80465425001992B.1.2.3 switch=y r1=1e-4 x1=1e-4 length=0.001 units=km
new line.SC_5270833 phases=3 bus1=80453245001992.1.2.3 bus2=80453245001992B.1.2.3 switch=y r1=1e-4 x1=1e-4 length=0.001 units=km
new line.SC_5270834 phases=3 bus1=80453775001992.1.2.3 bus2=80453775001992B.1.2.3 switch=y r1=1e-4 x1=1e-4 length=0.001 units=km
new line.SC_5270840 phases=3 bus1=80463445001992.1.2.3 bus2=80463445001992B.1.2.3 switch=y r1=1e-4 x1=1e-4 length=0.001 units=km
new line.SC_5270842 phases=3 bus1=80464225001992.1.2.3 bus2=80464225001992B.1.2.3 switch=y r1=1e-4 x1=1e-4 length=0.001 units=km
new line.SC_5270843 phases=3 bus1=80464235001992.1.2.3 bus2=80464235001992B.1.2.3 switch=y r1=1e-4 x1=1e-4 length=0.001 units=km
new line.SC_5270844 phases=3 bus1=80465575001992.1.2.3 bus2=80465575001992B.1.2.3 switch=y r1=1e-4 x1=1e-4 length=0.001 units=km
new line.SC_5270845 phases=3 bus1=80465625001992.1.2.3 bus2=80465625001992B.1.2.3 switch=y r1=1e-4 x1=1e-4 length=0.001 units=km
new line.SC_5270846 phases=3 bus1=80465455001992.1.2.3 bus2=80465455001992B.1.2.3 switch=y r1=1e-4 x1=1e-4 length=0.001 units=km
new line.SC_5270851 phases=3 bus1=80459835001992.1.2.3 bus2=80459835001992B.1.2.3 switch=y r1=1e-4 x1=1e-4 length=0.001 units=km
new line.SC_5270852 phases=3 bus1=80461825001992.1.2.3 bus2=80461825001992B.1.2.3 switch=y r1=1e-4 x1=1e-4 length=0.001 units=km
new line.SC_5270853 phases=3 bus1=80461835001992.1.2.3 bus2=80461835001992B.1.2.3 switch=y r1=1e-4 x1=1e-4 length=0.001 units=km
new line.SC_5271333 phases=3 bus1=80487535001992.1.2.3 bus2=80487535001992B.1.2.3 switch=y r1=1e-4 x1=1e-4 length=0.001 units=km
new line.SC_5271337 phases=3 bus1=80453995001992.1.2.3 bus2=80453995001992B.1.2.3 switch=y r1=1e-4 x1=1e-4 length=0.001 units=km
new line.SC_5271339 phases=3 bus1=80488865001992.1.2.3 bus2=80488865001992B.1.2.3 switch=y r1=1e-4 x1=1e-4 length=0.001 units=km
new line.SC_5271340 phases=3 bus1=80488895001992.1.2.3 bus2=80488895001992B.1.2.3 switch=y r1=1e-4 x1=1e-4 length=0.001 units=km
new line.SC_5271375 phases=3 bus1=80489165001992.1.2.3 bus2=80489165001992B.1.2.3 switch=y r1=1e-4 x1=1e-4 length=0.001 units=km
new line.SC_5271376 phases=3 bus1=80489215001992.1.2.3 bus2=80489215001992B.1.2.3 switch=y r1=1e-4 x1=1e-4 length=0.001 units=km
new line.SC_5271377 phases=3 bus1=80485015001992.1.2.3 bus2=80485015001992B.1.2.3 switch=y r1=1e-4 x1=1e-4 length=0.001 units=km
new line.SC_5271379 phases=3 bus1=80492505001992.1.2.3 bus2=80492505001992B.1.2.3 switch=y r1=1e-4 x1=1e-4 length=0.001 units=km
new line.SC_5271380 phases=3 bus1=80492585001992.1.2.3 bus2=80492585001992B.1.2.3 switch=y r1=1e-4 x1=1e-4 length=0.001 units=km
new line.SC_5271381 phases=3 bus1=80492635001992.1.2.3 bus2=80492635001992B.1.2.3 switch=y r1=1e-4 x1=1e-4 length=0.001 units=km
new line.SC_5271382 phases=3 bus1=80486855001992.1.2.3 bus2=80486855001992B.1.2.3 switch=y r1=1e-4 x1=1e-4 length=0.001 units=km
new line.SC_5271384 phases=3 bus1=80486935001992.1.2.3 bus2=80486935001992B.1.2.3 switch=y r1=1e-4 x1=1e-4 length=0.001 units=km
new line.SC_5271385 phases=3 bus1=80491605001992.1.2.3 bus2=80491605001992B.1.2.3 switch=y r1=1e-4 x1=1e-4 length=0.001 units=km
new line.SC_5271386 phases=3 bus1=80491645001992.1.2.3 bus2=80491645001992B.1.2.3 switch=y r1=1e-4 x1=1e-4 length=0.001 units=km
new line.SC_5271388 phases=3 bus1=80493435001992.1.2.3 bus2=80493435001992B.1.2.3 switch=y r1=1e-4 x1=1e-4 length=0.001 units=km
new line.SC_5271394 phases=3 bus1=80488765001992.1.2.3 bus2=80488765001992B.1.2.3 switch=y r1=1e-4 x1=1e-4 length=0.001 units=km
new line.SC_5271395 phases=3 bus1=80488815001992.1.2.3 bus2=80488815001992B.1.2.3 switch=y r1=1e-4 x1=1e-4 length=0.001 units=km
new line.SC_5271396 phases=3 bus1=80495135001992.1.2.3 bus2=80495135001992B.1.2.3 switch=y r1=1e-4 x1=1e-4 length=0.001 units=km
new line.SC_5271397 phases=3 bus1=80495985001992.1.2.3 bus2=80495985001992B.1.2.3 switch=y r1=1e-4 x1=1e-4 length=0.001 units=km
new line.SC_5271399 phases=3 bus1=80497455001992.1.2.3 bus2=80497455001992B.1.2.3 switch=y r1=1e-4 x1=1e-4 length=0.001 units=km
new line.SC_5271402 phases=3 bus1=80495875001992.1.2.3 bus2=80495875001992B.1.2.3 switch=y r1=1e-4 x1=1e-4 length=0.001 units=km
new line.SC_5271403 phases=3 bus1=80495225001992.1.2.3 bus2=80495225001992B.1.2.3 switch=y r1=1e-4 x1=1e-4 length=0.001 units=km
new line.SC_5271404 phases=3 bus1=80488775001992.1.2.3 bus2=80488775001992B.1.2.3 switch=y r1=1e-4 x1=1e-4 length=0.001 units=km
new line.SC_5271405 phases=3 bus1=80488735001992.1.2.3 bus2=80488735001992B.1.2.3 switch=y r1=1e-4 x1=1e-4 length=0.001 units=km
new line.SC_5271406 phases=3 bus1=80497745001992.1.2.3 bus2=80497745001992B.1.2.3 switch=y r1=1e-4 x1=1e-4 length=0.001 units=km
new line.SC_5271408 phases=3 bus1=80497935001992.1.2.3 bus2=80497935001992B.1.2.3 switch=y r1=1e-4 x1=1e-4 length=0.001 units=km
new line.SC_5298209 phases=3 bus1=80490375001992.1.2.3 bus2=80490375001992B.1.2.3 switch=y r1=1e-4 x1=1e-4 length=0.001 units=km
new line.SC_5300026 phases=3 bus1=80492745001992.1.2.3 bus2=80492745001992B.1.2.3 switch=y r1=1e-4 x1=1e-4 length=0.001 units=km
new line.SC_5305462 phases=3 bus1=80484815001992.1.2.3 bus2=80484815001992B.1.2.3 switch=y r1=1e-4 x1=1e-4 length=0.001 units=km
new line.SC_5455371 phases=3 bus1=80488925001992.1.2.3 bus2=80488925001992B.1.2.3 switch=y r1=1e-4 x1=1e-4 length=0.001 units=km
new line.SC_5549830 phases=3 bus1=80461885001992.1.2.3 bus2=80461885001992B.1.2.3 switch=y r1=1e-4 x1=1e-4 length=0.001 units=km
new line.SC_5549831 phases=3 bus1=93286565001992.1.2.3 bus2=93286565001992B.1.2.3 switch=y r1=1e-4 x1=1e-4 length=0.001 units=km
open line.SC_5549831 1
new line.SC_5549832 phases=3 bus1=93285925001992.1.2.3 bus2=93285925001992B.1.2.3 switch=y r1=1e-4 x1=1e-4 length=0.001 units=km
new line.SC_5549833 phases=3 bus1=93776455001992.1.2.3 bus2=93776455001992B.1.2.3 switch=y r1=1e-4 x1=1e-4 length=0.001 units=km
new line.SC_5562148 phases=3 bus1=80497405001992.1.2.3 bus2=80497405001992B.1.2.3 switch=y r1=1e-4 x1=1e-4 length=0.001 units=km
new line.SC_5580288 phases=3 bus1=91015705001992.1.2.3 bus2=91015705001992B.1.2.3 switch=y r1=1e-4 x1=1e-4 length=0.001 units=km
open line.SC_5580288 1
new line.SC_5580289 phases=3 bus1=80491005001992.1.2.3 bus2=80491005001992B.1.2.3 switch=y r1=1e-4 x1=1e-4 length=0.001 units=km
open line.SC_5580289 1
new line.SC_5580461 phases=3 bus1=91019335001992.1.2.3 bus2=91019335001992B.1.2.3 switch=y r1=1e-4 x1=1e-4 length=0.001 units=km
new line.SC_5580462 phases=3 bus1=91019345001992.1.2.3 bus2=91019345001992B.1.2.3 switch=y r1=1e-4 x1=1e-4 length=0.001 units=km
new line.SC_5580463 phases=3 bus1=91019355001992.1.2.3 bus2=91019355001992B.1.2.3 switch=y r1=1e-4 x1=1e-4 length=0.001 units=km
open line.SC_5580463 1
new line.SC_5583033 phases=3 bus1=80491595001992.1.2.3 bus2=80491595001992B.1.2.3 switch=y r1=1e-4 x1=1e-4 length=0.001 units=km
new line.SC_5584534 phases=3 bus1=91888425001992.1.2.3 bus2=91888425001992B.1.2.3 switch=y r1=1e-4 x1=1e-4 length=0.001 units=km
new line.SC_5585229 phases=3 bus1=91106985001992.1.2.3 bus2=91106985001992B.1.2.3 switch=y r1=1e-4 x1=1e-4 length=0.001 units=km
new line.SC_5585231 phases=3 bus1=91107005001992.1.2.3 bus2=91107005001992B.1.2.3 switch=y r1=1e-4 x1=1e-4 length=0.001 units=km
open line.SC_5585231 1
new line.SC_5589810 phases=3 bus1=80496705001992.1.2.3 bus2=80496705001992B.1.2.3 switch=y r1=1e-4 x1=1e-4 length=0.001 units=km
new line.SC_5592420 phases=3 bus1=80484825001992.1.2.3 bus2=80484825001992B.1.2.3 switch=y r1=1e-4 x1=1e-4 length=0.001 units=km
new line.SC_5613887 phases=3 bus1=80486875001992.1.2.3 bus2=80486875001992B.1.2.3 switch=y r1=1e-4 x1=1e-4 length=0.001 units=km
new line.SC_5613888 phases=3 bus1=80486755001992.1.2.3 bus2=80486755001992B.1.2.3 switch=y r1=1e-4 x1=1e-4 length=0.001 units=km
new line.SC_5654252 phases=3 bus1=93357835001992.1.2.3 bus2=93357835001992B.1.2.3 switch=y r1=1e-4 x1=1e-4 length=0.001 units=km
new line.SC_5661805 phases=3 bus1=93542995001992.1.2.3 bus2=93542995001992B.1.2.3 switch=y r1=1e-4 x1=1e-4 length=0.001 units=km
open line.SC_5661805 1
new line.SC_5661817 phases=3 bus1=80465975001992.1.2.3 bus2=80465975001992B.1.2.3 switch=y r1=1e-4 x1=1e-4 length=0.001 units=km
open line.SC_5661817 1
new line.SC_5683851 phases=3 bus1=94205855001992.1.2.3 bus2=94205855001992B.1.2.3 switch=y r1=1e-4 x1=1e-4 length=0.001 units=km
open line.SC_5683851 1
new line.SC_5683976 phases=3 bus1=94207705001992.1.2.3 bus2=94207705001992B.1.2.3 switch=y r1=1e-4 x1=1e-4 length=0.001 units=km
new line.SC_5683977 phases=3 bus1=94207735001992.1.2.3 bus2=94207735001992B.1.2.3 switch=y r1=1e-4 x1=1e-4 length=0.001 units=km
open line.SC_5683977 1
new line.SC_5687487 phases=3 bus1=95400135001992.1.2.3 bus2=95400135001992B.1.2.3 switch=y r1=1e-4 x1=1e-4 length=0.001 units=km
open line.SC_5687487 1
new line.SC_5688208 phases=3 bus1=80464425001992.1.2.3 bus2=80464425001992B.1.2.3 switch=y r1=1e-4 x1=1e-4 length=0.001 units=km
new line.SC_5688229 phases=3 bus1=80465615001992.1.2.3 bus2=80465615001992B.1.2.3 switch=y r1=1e-4 x1=1e-4 length=0.001 units=km
new line.SC_5697274 phases=3 bus1=94481005001992.1.2.3 bus2=94481005001992B.1.2.3 switch=y r1=1e-4 x1=1e-4 length=0.001 units=km
new line.SC_5697275 phases=3 bus1=94481035001992.1.2.3 bus2=94481035001992B.1.2.3 switch=y r1=1e-4 x1=1e-4 length=0.001 units=km
open line.SC_5697275 1
new line.SC_5698227 phases=3 bus1=80460485001992.1.2.3 bus2=80460485001992B.1.2.3 switch=y r1=1e-4 x1=1e-4 length=0.001 units=km
new line.SC_5702240 phases=3 bus1=94565025001992.1.2.3 bus2=94565025001992B.1.2.3 switch=y r1=1e-4 x1=1e-4 length=0.001 units=km
new line.SC_5702241 phases=3 bus1=94565065001992.1.2.3 bus2=94565065001992B.1.2.3 switch=y r1=1e-4 x1=1e-4 length=0.001 units=km
open line.SC_5702241 1
new line.SC_5702411 phases=3 bus1=95400095001992.1.2.3 bus2=95400095001992B.1.2.3 switch=y r1=1e-4 x1=1e-4 length=0.001 units=km
new line.SC_5703844 phases=3 bus1=94589265001992.1.2.3 bus2=94589265001992B.1.2.3 switch=y r1=1e-4 x1=1e-4 length=0.001 units=km
new line.SC_5703845 phases=3 bus1=94589295001992.1.2.3 bus2=94589295001992B.1.2.3 switch=y r1=1e-4 x1=1e-4 length=0.001 units=km
open line.SC_5703845 1
new line.SC_5704813 phases=3 bus1=94618185001992.1.2.3 bus2=94618185001992B.1.2.3 switch=y r1=1e-4 x1=1e-4 length=0.001 units=km
new line.SC_5704814 phases=3 bus1=94618435001992.1.2.3 bus2=94618435001992B.1.2.3 switch=y r1=1e-4 x1=1e-4 length=0.001 units=km
open line.SC_5704814 1
new line.SC_5705794 phases=3 bus1=94643715001992.1.2.3 bus2=94643715001992B.1.2.3 switch=y r1=1e-4 x1=1e-4 length=0.001 units=km
new line.SC_5705795 phases=3 bus1=94643755001992.1.2.3 bus2=94643755001992B.1.2.3 switch=y r1=1e-4 x1=1e-4 length=0.001 units=km
open line.SC_5705795 1
new line.SC_5706530 phases=3 bus1=94661945001992.1.2.3 bus2=94661945001992B.1.2.3 switch=y r1=1e-4 x1=1e-4 length=0.001 units=km
new line.SC_5706531 phases=3 bus1=94661915001992.1.2.3 bus2=94661915001992B.1.2.3 switch=y r1=1e-4 x1=1e-4 length=0.001 units=km
open line.SC_5706531 1
new line.SC_5715406 phases=3 bus1=94944165001992.1.2.3 bus2=94944165001992B.1.2.3 switch=y r1=1e-4 x1=1e-4 length=0.001 units=km
new line.SC_5715415 phases=3 bus1=94944355001992.1.2.3 bus2=94944355001992B.1.2.3 switch=y r1=1e-4 x1=1e-4 length=0.001 units=km
open line.SC_5715415 1
new line.SC_5715434 phases=3 bus1=94944395001992.1.2.3 bus2=94944395001992B.1.2.3 switch=y r1=1e-4 x1=1e-4 length=0.001 units=km
new line.SC_5715435 phases=3 bus1=94944435001992.1.2.3 bus2=94944435001992B.1.2.3 switch=y r1=1e-4 x1=1e-4 length=0.001 units=km
open line.SC_5715435 1
new line.SC_5725214 phases=3 bus1=95424645001992.1.2.3 bus2=95424645001992B.1.2.3 switch=y r1=1e-4 x1=1e-4 length=0.001 units=km
open line.SC_5725214 1
new line.SC_5725215 phases=3 bus1=95424615001992.1.2.3 bus2=95424615001992B.1.2.3 switch=y r1=1e-4 x1=1e-4 length=0.001 units=km
new line.SC_5725465 phases=3 bus1=95428645001992.1.2.3 bus2=95428645001992B.1.2.3 switch=y r1=1e-4 x1=1e-4 length=0.001 units=km
open line.SC_5725465 1
new line.SC_5725466 phases=3 bus1=95428675001992.1.2.3 bus2=95428675001992B.1.2.3 switch=y r1=1e-4 x1=1e-4 length=0.001 units=km
open line.SC_5725466 1
new line.SC_5731475 phases=3 bus1=95715385001992.1.2.3 bus2=95715385001992B.1.2.3 switch=y r1=1e-4 x1=1e-4 length=0.001 units=km
new line.SC_5738831 phases=3 bus1=95986575001992.1.2.3 bus2=95986575001992B.1.2.3 switch=y r1=1e-4 x1=1e-4 length=0.001 units=km
open line.SC_5738831 1
new line.SC_5738832 phases=3 bus1=80461495001992.1.2.3 bus2=80461495001992B.1.2.3 switch=y r1=1e-4 x1=1e-4 length=0.001 units=km
open line.SC_5738832 1
new line.SC_5739655 phases=3 bus1=96014405001992.1.2.3 bus2=96014405001992B.1.2.3 switch=y r1=1e-4 x1=1e-4 length=0.001 units=km
open line.SC_5739655 1
new line.SC_5762190 phases=3 bus1=97150255001992.1.2.3 bus2=97150255001992B.1.2.3 switch=y r1=1e-4 x1=1e-4 length=0.001 units=km
new line.SC_5762191 phases=3 bus1=97150265001992.1.2.3 bus2=97150265001992B.1.2.3 switch=y r1=1e-4 x1=1e-4 length=0.001 units=km
open line.SC_5762191 1
new line.SC_5780455 phases=3 bus1=97799985001992.1.2.3 bus2=97799985001992B.1.2.3 switch=y r1=1e-4 x1=1e-4 length=0.001 units=km
open line.SC_5780455 1
new line.SC_5780456 phases=3 bus1=97799975001992.1.2.3 bus2=97799975001992B.1.2.3 switch=y r1=1e-4 x1=1e-4 length=0.001 units=km
new line.SC_5781300 phases=3 bus1=95207325001992.1.2.3 bus2=95207325001992B.1.2.3 switch=y r1=1e-4 x1=1e-4 length=0.001 units=km
new line.SC_5785294 phases=3 bus1=98027035001992.1.2.3 bus2=98027035001992B.1.2.3 switch=y r1=1e-4 x1=1e-4 length=0.001 units=km
open line.SC_5785294 1
new line.SC_5785295 phases=3 bus1=98027025001992.1.2.3 bus2=98027025001992B.1.2.3 switch=y r1=1e-4 x1=1e-4 length=0.001 units=km
new line.SC_5791511 phases=3 bus1=80539645001992.1.2.3 bus2=80539645001992B.1.2.3 switch=y r1=1e-4 x1=1e-4 length=0.001 units=km
new line.SC_SA0002813 phases=3 bus1=SA0002813.1.2.3 bus2=SA0002813B.1.2.3 switch=y r1=1e-4 x1=1e-4 length=0.001 units=km
new line.SC_SA0002812 phases=3 bus1=SA0002812.1.2.3 bus2=SA0002812B.1.2.3 switch=y r1=1e-4 x1=1e-4 length=0.001 units=km
new line.SC_5810419 phases=3 bus1=99337755001992.1.2.3 bus2=99337755001992B.1.2.3 switch=y r1=1e-4 x1=1e-4 length=0.001 units=km
new line.SC_DA0000422 phases=3 bus1=I888888103475001992.1.2.3 bus2=I888888103475001992B.1.2.3 switch=y r1=1e-4 x1=1e-4 length=0.001 units=km

! 5. Transformadores MT/BT de Distribuicao
new transformer.UNTRMT_5812316 phases=3 windings=2 %r=1.39 xhl=3.21 kva=75.0
~ wdg=1 bus=80487135001992.1.2.3 conn=delta kv=13.8
~ wdg=2 bus=80487135812316.1.2.3.0 conn=wye kv=0.38

new transformer.UNTRMT_5270788 phases=3 windings=2 %r=1.55 xhl=3.14 kva=75.0
~ wdg=1 bus=80450075001992.1.2.3 conn=delta kv=13.8
~ wdg=2 bus=80450075270788.1.2.3.0 conn=wye kv=0.38

new transformer.UNTRMT_5270808 phases=3 windings=2 %r=1.39 xhl=3.21 kva=150.0
~ wdg=1 bus=80453675001992.1.2.3 conn=delta kv=13.8
~ wdg=2 bus=80453675270808.1.2.3.0 conn=wye kv=0.38

new transformer.UNTRMT_5270809 phases=3 windings=2 %r=1.39 xhl=3.21 kva=150.0
~ wdg=1 bus=80453735001992.1.2.3 conn=delta kv=13.8
~ wdg=2 bus=80453735270809.1.2.3.0 conn=wye kv=0.38

new transformer.UNTRMT_5270874 phases=3 windings=2 %r=1.46 xhl=3.18 kva=112.0
~ wdg=1 bus=80450245001992.1.2.3 conn=delta kv=13.8
~ wdg=2 bus=80450245270874.1.2.3.0 conn=wye kv=0.38

new transformer.UNTRMT_5270879 phases=3 windings=2 %r=1.55 xhl=3.14 kva=75.0
~ wdg=1 bus=80450015001992.1.2.3 conn=delta kv=13.8
~ wdg=2 bus=80450015270879.1.2.3.0 conn=wye kv=0.38

new transformer.UNTRMT_5270880 phases=3 windings=2 %r=1.68 xhl=3.07 kva=45.0
~ wdg=1 bus=80450095001992.1.2.3 conn=delta kv=13.8
~ wdg=2 bus=80450095270880.1.2.3.0 conn=wye kv=0.38

new transformer.UNTRMT_5270925 phases=3 windings=2 %r=1.46 xhl=3.18 kva=112.0
~ wdg=1 bus=80464345001992.1.2.3 conn=delta kv=13.8
~ wdg=2 bus=80464345270925.1.2.3.0 conn=wye kv=0.38

new transformer.UNTRMT_5270926 phases=3 windings=2 %r=1.55 xhl=3.14 kva=75.0
~ wdg=1 bus=80464335001992.1.2.3 conn=delta kv=13.8
~ wdg=2 bus=80464335270926.1.2.3.0 conn=wye kv=0.38

new transformer.UNTRMT_5270927 phases=3 windings=2 %r=1.55 xhl=3.14 kva=75.0
~ wdg=1 bus=80464195001992.1.2.3 conn=delta kv=13.8
~ wdg=2 bus=80464195270927.1.2.3.0 conn=wye kv=0.38

new transformer.UNTRMT_5270928 phases=3 windings=2 %r=1.55 xhl=3.14 kva=75.0
~ wdg=1 bus=80464955001992.1.2.3 conn=delta kv=13.8
~ wdg=2 bus=80464955270928.1.2.3.0 conn=wye kv=0.38

new transformer.UNTRMT_5270929 phases=3 windings=2 %r=1.39 xhl=3.21 kva=150.0
~ wdg=1 bus=80464675001992.1.2.3 conn=delta kv=13.8
~ wdg=2 bus=80464675270929.1.2.3.0 conn=wye kv=0.38

new transformer.UNTRMT_5270930 phases=3 windings=2 %r=1.39 xhl=3.21 kva=150.0
~ wdg=1 bus=80465505001992.1.2.3 conn=delta kv=13.8
~ wdg=2 bus=80465505270930.1.2.3.0 conn=wye kv=0.38

new transformer.UNTRMT_5270931 phases=3 windings=2 %r=1.39 xhl=3.21 kva=150.0
~ wdg=1 bus=80465475001992.1.2.3 conn=delta kv=13.8
~ wdg=2 bus=80465475270931.1.2.3.0 conn=wye kv=0.38

new transformer.UNTRMT_5270932 phases=3 windings=2 %r=1.46 xhl=3.18 kva=112.0
~ wdg=1 bus=80465555001992.1.2.3 conn=delta kv=13.8
~ wdg=2 bus=80465555270932.1.2.3.0 conn=wye kv=0.38

new transformer.UNTRMT_5270933 phases=3 windings=2 %r=1.46 xhl=3.18 kva=112.0
~ wdg=1 bus=80463365001992.1.2.3 conn=delta kv=13.8
~ wdg=2 bus=80463365270933.1.2.3.0 conn=wye kv=0.38

new transformer.UNTRMT_5270934 phases=3 windings=2 %r=1.46 xhl=3.18 kva=112.0
~ wdg=1 bus=80463375001992.1.2.3 conn=delta kv=13.8
~ wdg=2 bus=80463375270934.1.2.3.0 conn=wye kv=0.38

new transformer.UNTRMT_5270935 phases=3 windings=2 %r=1.3 xhl=4.31 kva=225.0
~ wdg=1 bus=80465865001992.1.2.3 conn=delta kv=13.8
~ wdg=2 bus=80465865270935.1.2.3.0 conn=wye kv=0.38

new transformer.UNTRMT_5270936 phases=3 windings=2 %r=1.55 xhl=3.14 kva=75.0
~ wdg=1 bus=80459775001992.1.2.3 conn=delta kv=13.8
~ wdg=2 bus=80459775270936.1.2.3.0 conn=wye kv=0.38

new transformer.UNTRMT_5270937 phases=3 windings=2 %r=1.46 xhl=3.18 kva=112.0
~ wdg=1 bus=80459945001992.1.2.3 conn=delta kv=13.8
~ wdg=2 bus=80459945270937.1.2.3.0 conn=wye kv=0.38

new transformer.UNTRMT_5270938 phases=3 windings=2 %r=1.55 xhl=3.14 kva=75.0
~ wdg=1 bus=80462285001992.1.2.3 conn=delta kv=13.8
~ wdg=2 bus=80462285270938.1.2.3.0 conn=wye kv=0.38

new transformer.UNTRMT_5270939 phases=3 windings=2 %r=1.55 xhl=3.14 kva=75.0
~ wdg=1 bus=80461165001992.1.2.3 conn=delta kv=13.8
~ wdg=2 bus=80461165270939.1.2.3.0 conn=wye kv=0.38

new transformer.UNTRMT_5270940 phases=3 windings=2 %r=1.39 xhl=3.21 kva=150.0
~ wdg=1 bus=80463105001992.1.2.3 conn=delta kv=13.8
~ wdg=2 bus=80463105270940.1.2.3.0 conn=wye kv=0.38

new transformer.UNTRMT_5270941 phases=3 windings=2 %r=1.39 xhl=3.21 kva=150.0
~ wdg=1 bus=80463165001992.1.2.3 conn=delta kv=13.8
~ wdg=2 bus=80463165270941.1.2.3.0 conn=wye kv=0.38

new transformer.UNTRMT_5270944 phases=3 windings=2 %r=1.46 xhl=3.18 kva=112.0
~ wdg=1 bus=80460235001992.1.2.3 conn=delta kv=13.8
~ wdg=2 bus=80460235270944.1.2.3.0 conn=wye kv=0.38

new transformer.UNTRMT_5270945 phases=3 windings=2 %r=1.46 xhl=3.18 kva=112.0
~ wdg=1 bus=80460345001992.1.2.3 conn=delta kv=13.8
~ wdg=2 bus=80460345270945.1.2.3.0 conn=wye kv=0.38

new transformer.UNTRMT_5270946 phases=3 windings=2 %r=1.55 xhl=3.14 kva=75.0
~ wdg=1 bus=80460435001992.1.2.3 conn=delta kv=13.8
~ wdg=2 bus=80460435270946.1.2.3.0 conn=wye kv=0.38

new transformer.UNTRMT_5270947 phases=3 windings=2 %r=1.55 xhl=3.14 kva=75.0
~ wdg=1 bus=80460525001992.1.2.3 conn=delta kv=13.8
~ wdg=2 bus=80460525270947.1.2.3.0 conn=wye kv=0.38

new transformer.UNTRMT_5270948 phases=3 windings=2 %r=1.68 xhl=3.07 kva=45.0
~ wdg=1 bus=80460585001992.1.2.3 conn=delta kv=13.8
~ wdg=2 bus=80460585270948.1.2.3.0 conn=wye kv=0.38

new transformer.UNTRMT_5270949 phases=3 windings=2 %r=1.78 xhl=3.01 kva=30.0
~ wdg=1 bus=80460695001992.1.2.3 conn=delta kv=13.8
~ wdg=2 bus=80460695270949.1.2.3.0 conn=wye kv=0.38

new transformer.UNTRMT_5270951 phases=3 windings=2 %r=1.46 xhl=3.18 kva=112.0
~ wdg=1 bus=80461305001992.1.2.3 conn=delta kv=13.8
~ wdg=2 bus=80461305270951.1.2.3.0 conn=wye kv=0.38

new transformer.UNTRMT_5270952 phases=3 windings=2 %r=1.46 xhl=3.18 kva=112.0
~ wdg=1 bus=80461975001992.1.2.3 conn=delta kv=13.8
~ wdg=2 bus=80461975270952.1.2.3.0 conn=wye kv=0.38

new transformer.UNTRMT_5270954 phases=3 windings=2 %r=1.46 xhl=3.18 kva=112.0
~ wdg=1 bus=80452895001992.1.2.3 conn=delta kv=13.8
~ wdg=2 bus=80452895270954.1.2.3.0 conn=wye kv=0.38

new transformer.UNTRMT_5270955 phases=3 windings=2 %r=1.46 xhl=3.18 kva=112.0
~ wdg=1 bus=80452965001992.1.2.3 conn=delta kv=13.8
~ wdg=2 bus=80452965270955.1.2.3.0 conn=wye kv=0.38

new transformer.UNTRMT_5270956 phases=3 windings=2 %r=1.46 xhl=3.18 kva=112.0
~ wdg=1 bus=80463245001992.1.2.3 conn=delta kv=13.8
~ wdg=2 bus=80463245270956.1.2.3.0 conn=wye kv=0.38

new transformer.UNTRMT_5270957 phases=3 windings=2 %r=1.39 xhl=3.21 kva=150.0
~ wdg=1 bus=80465795001992.1.2.3 conn=delta kv=13.8
~ wdg=2 bus=80465795270957.1.2.3.0 conn=wye kv=0.38

new transformer.UNTRMT_5270965 phases=3 windings=2 %r=1.46 xhl=3.18 kva=112.0
~ wdg=1 bus=80453915001992.1.2.3 conn=delta kv=13.8
~ wdg=2 bus=80453915270965.1.2.3.0 conn=wye kv=0.38

new transformer.UNTRMT_5270966 phases=3 windings=2 %r=1.39 xhl=3.21 kva=150.0
~ wdg=1 bus=80454025001992.1.2.3 conn=delta kv=13.8
~ wdg=2 bus=80454025270966.1.2.3.0 conn=wye kv=0.38

new transformer.UNTRMT_5271350 phases=3 windings=2 %r=1.55 xhl=3.14 kva=75.0
~ wdg=1 bus=80491805001992.1.2.3 conn=delta kv=13.8
~ wdg=2 bus=80491805271350.1.2.3.0 conn=wye kv=0.38

new transformer.UNTRMT_5271351 phases=3 windings=2 %r=1.25 xhl=4.32 kva=300.0
~ wdg=1 bus=80486195001992.1.2.3 conn=delta kv=13.8
~ wdg=2 bus=80486195271351.1.2.3.0 conn=wye kv=0.38

new transformer.UNTRMT_5271352 phases=3 windings=2 %r=1.46 xhl=3.18 kva=112.0
~ wdg=1 bus=80486235001992.1.2.3 conn=delta kv=13.8
~ wdg=2 bus=80486235271352.1.2.3.0 conn=wye kv=0.38

new transformer.UNTRMT_5271354 phases=3 windings=2 %r=1.39 xhl=3.21 kva=150.0
~ wdg=1 bus=80486645001992.1.2.3 conn=delta kv=13.8
~ wdg=2 bus=80486645271354.1.2.3.0 conn=wye kv=0.38

new transformer.UNTRMT_5271355 phases=3 windings=2 %r=1.3 xhl=4.31 kva=225.0
~ wdg=1 bus=80494135001992.1.2.3 conn=delta kv=13.8
~ wdg=2 bus=80494135271355.1.2.3.0 conn=wye kv=0.38

new transformer.UNTRMT_5271417 phases=3 windings=2 %r=1.55 xhl=3.14 kva=75.0
~ wdg=1 bus=80491025001992.1.2.3 conn=delta kv=13.8
~ wdg=2 bus=80491025271417.1.2.3.0 conn=wye kv=0.38

new transformer.UNTRMT_5271419 phases=3 windings=2 %r=1.46 xhl=3.18 kva=112.0
~ wdg=1 bus=80485325001992.1.2.3 conn=delta kv=13.8
~ wdg=2 bus=80485325271419.1.2.3.0 conn=wye kv=0.38

new transformer.UNTRMT_5271421 phases=3 windings=2 %r=1.46 xhl=3.18 kva=112.0
~ wdg=1 bus=80489155001992.1.2.3 conn=delta kv=13.8
~ wdg=2 bus=80489155271421.1.2.3.0 conn=wye kv=0.38

new transformer.UNTRMT_5271423 phases=3 windings=2 %r=1.46 xhl=3.18 kva=112.0
~ wdg=1 bus=80489245001992.1.2.3 conn=delta kv=13.8
~ wdg=2 bus=80489245271423.1.2.3.0 conn=wye kv=0.38

new transformer.UNTRMT_5271425 phases=3 windings=2 %r=1.46 xhl=3.18 kva=112.0
~ wdg=1 bus=80489965001992.1.2.3 conn=delta kv=13.8
~ wdg=2 bus=80489965271425.1.2.3.0 conn=wye kv=0.38

new transformer.UNTRMT_5271426 phases=3 windings=2 %r=1.46 xhl=3.18 kva=112.0
~ wdg=1 bus=80490335001992.1.2.3 conn=delta kv=13.8
~ wdg=2 bus=80490335271426.1.2.3.0 conn=wye kv=0.38

new transformer.UNTRMT_5271427 phases=3 windings=2 %r=1.46 xhl=3.18 kva=112.0
~ wdg=1 bus=80487215001992.1.2.3 conn=delta kv=13.8
~ wdg=2 bus=80487215271427.1.2.3.0 conn=wye kv=0.38

new transformer.UNTRMT_5271428 phases=3 windings=2 %r=1.68 xhl=3.07 kva=45.0
~ wdg=1 bus=80487775001992.1.2.3 conn=delta kv=13.8
~ wdg=2 bus=80487775271428.1.2.3.0 conn=wye kv=0.38

new transformer.UNTRMT_5271446 phases=3 windings=2 %r=1.46 xhl=3.18 kva=112.0
~ wdg=1 bus=80496815001992.1.2.3 conn=delta kv=13.8
~ wdg=2 bus=80496815271446.1.2.3.0 conn=wye kv=0.38

new transformer.UNTRMT_5271447 phases=3 windings=2 %r=1.46 xhl=3.18 kva=112.0
~ wdg=1 bus=80495975001992.1.2.3 conn=delta kv=13.8
~ wdg=2 bus=80495975271447.1.2.3.0 conn=wye kv=0.38

new transformer.UNTRMT_5271448 phases=3 windings=2 %r=1.46 xhl=3.18 kva=112.0
~ wdg=1 bus=80493305001992.1.2.3 conn=delta kv=13.8
~ wdg=2 bus=80493305271448.1.2.3.0 conn=wye kv=0.38

new transformer.UNTRMT_5271449 phases=3 windings=2 %r=1.46 xhl=3.18 kva=112.0
~ wdg=1 bus=80497225001992.1.2.3 conn=delta kv=13.8
~ wdg=2 bus=80497225271449.1.2.3.0 conn=wye kv=0.38

new transformer.UNTRMT_5271450 phases=3 windings=2 %r=1.46 xhl=3.18 kva=112.0
~ wdg=1 bus=80497235001992.1.2.3 conn=delta kv=13.8
~ wdg=2 bus=80497235271450.1.2.3.0 conn=wye kv=0.38

new transformer.UNTRMT_5271451 phases=3 windings=2 %r=1.46 xhl=3.18 kva=112.0
~ wdg=1 bus=80497485001992.1.2.3 conn=delta kv=13.8
~ wdg=2 bus=80497485271451.1.2.3.0 conn=wye kv=0.38

new transformer.UNTRMT_5271452 phases=3 windings=2 %r=1.68 xhl=3.07 kva=45.0
~ wdg=1 bus=80498295001992.1.2.3 conn=delta kv=13.8
~ wdg=2 bus=80498295271452.1.2.3.0 conn=wye kv=0.38

new transformer.UNTRMT_5271453 phases=3 windings=2 %r=1.46 xhl=3.18 kva=112.0
~ wdg=1 bus=80498345001992.1.2.3 conn=delta kv=13.8
~ wdg=2 bus=80498345271453.1.2.3.0 conn=wye kv=0.38

new transformer.UNTRMT_5271454 phases=3 windings=2 %r=1.68 xhl=3.07 kva=45.0
~ wdg=1 bus=80498515001992.1.2.3 conn=delta kv=13.8
~ wdg=2 bus=80498515271454.1.2.3.0 conn=wye kv=0.38

new transformer.UNTRMT_5271455 phases=3 windings=2 %r=1.46 xhl=3.18 kva=112.0
~ wdg=1 bus=80497545001992.1.2.3 conn=delta kv=13.8
~ wdg=2 bus=80497545271455.1.2.3.0 conn=wye kv=0.38

new transformer.UNTRMT_5271464 phases=3 windings=2 %r=1.46 xhl=3.18 kva=112.0
~ wdg=1 bus=80495915001992.1.2.3 conn=delta kv=13.8
~ wdg=2 bus=80495915271464.1.2.3.0 conn=wye kv=0.38

new transformer.UNTRMT_5271465 phases=3 windings=2 %r=1.55 xhl=3.14 kva=75.0
~ wdg=1 bus=80495255001992.1.2.3 conn=delta kv=13.8
~ wdg=2 bus=80495255271465.1.2.3.0 conn=wye kv=0.38

new transformer.UNTRMT_5271466 phases=3 windings=2 %r=1.55 xhl=3.14 kva=75.0
~ wdg=1 bus=80495615001992.1.2.3 conn=delta kv=13.8
~ wdg=2 bus=80495615271466.1.2.3.0 conn=wye kv=0.38

new transformer.UNTRMT_5271467 phases=3 windings=2 %r=1.46 xhl=3.18 kva=112.0
~ wdg=1 bus=80495555001992.1.2.3 conn=delta kv=13.8
~ wdg=2 bus=80495555271467.1.2.3.0 conn=wye kv=0.38

new transformer.UNTRMT_5271468 phases=3 windings=2 %r=1.46 xhl=3.18 kva=112.0
~ wdg=1 bus=80497515001992.1.2.3 conn=delta kv=13.8
~ wdg=2 bus=80497515271468.1.2.3.0 conn=wye kv=0.38

new transformer.UNTRMT_5271469 phases=3 windings=2 %r=1.55 xhl=3.14 kva=75.0
~ wdg=1 bus=80497855001992.1.2.3 conn=delta kv=13.8
~ wdg=2 bus=80497855271469.1.2.3.0 conn=wye kv=0.38

new transformer.UNTRMT_5271470 phases=3 windings=2 %r=1.68 xhl=3.07 kva=45.0
~ wdg=1 bus=80497975001992.1.2.3 conn=delta kv=13.8
~ wdg=2 bus=80497975271470.1.2.3.0 conn=wye kv=0.38

new transformer.UNTRMT_5271471 phases=3 windings=2 %r=1.55 xhl=3.14 kva=75.0
~ wdg=1 bus=80498115001992.1.2.3 conn=delta kv=13.8
~ wdg=2 bus=80498115271471.1.2.3.0 conn=wye kv=0.38

new transformer.UNTRMT_5271472 phases=3 windings=2 %r=1.55 xhl=3.14 kva=75.0
~ wdg=1 bus=80498155001992.1.2.3 conn=delta kv=13.8
~ wdg=2 bus=80498155271472.1.2.3.0 conn=wye kv=0.38

new transformer.UNTRMT_5271473 phases=3 windings=2 %r=1.68 xhl=3.07 kva=45.0
~ wdg=1 bus=80498265001992.1.2.3 conn=delta kv=13.8
~ wdg=2 bus=80498265271473.1.2.3.0 conn=wye kv=0.38

new transformer.UNTRMT_5271476 phases=3 windings=2 %r=1.46 xhl=3.18 kva=112.0
~ wdg=1 bus=80500675001992.1.2.3 conn=delta kv=13.8
~ wdg=2 bus=80500675271476.1.2.3.0 conn=wye kv=0.38

new transformer.UNTRMT_5271480 phases=3 windings=2 %r=1.46 xhl=3.18 kva=112.0
~ wdg=1 bus=80496695001992.1.2.3 conn=delta kv=13.8
~ wdg=2 bus=80496695271480.1.2.3.0 conn=wye kv=0.38

new transformer.UNTRMT_5271481 phases=3 windings=2 %r=1.55 xhl=3.14 kva=75.0
~ wdg=1 bus=80487895001992.1.2.3 conn=delta kv=13.8
~ wdg=2 bus=80487895271481.1.2.3.0 conn=wye kv=0.38

new transformer.UNTRMT_5271482 phases=3 windings=2 %r=1.68 xhl=3.07 kva=45.0
~ wdg=1 bus=80492475001992.1.2.3 conn=delta kv=13.8
~ wdg=2 bus=80492475271482.1.2.3.0 conn=wye kv=0.38

new transformer.UNTRMT_5271483 phases=3 windings=2 %r=1.46 xhl=3.18 kva=112.0
~ wdg=1 bus=80492525001992.1.2.3 conn=delta kv=13.8
~ wdg=2 bus=80492525271483.1.2.3.0 conn=wye kv=0.38

new transformer.UNTRMT_5271484 phases=3 windings=2 %r=1.46 xhl=3.18 kva=112.0
~ wdg=1 bus=80492715001992.1.2.3 conn=delta kv=13.8
~ wdg=2 bus=80492715271484.1.2.3.0 conn=wye kv=0.38

new transformer.UNTRMT_5271485 phases=3 windings=2 %r=1.46 xhl=3.18 kva=112.0
~ wdg=1 bus=80484795001992.1.2.3 conn=delta kv=13.8
~ wdg=2 bus=80484795271485.1.2.3.0 conn=wye kv=0.38

new transformer.UNTRMT_5271486 phases=3 windings=2 %r=1.3 xhl=4.31 kva=225.0
~ wdg=1 bus=87561625001992.1.2.3 conn=delta kv=13.8
~ wdg=2 bus=87561625271486.1.2.3.0 conn=wye kv=0.38

new transformer.UNTRMT_5271487 phases=3 windings=2 %r=1.46 xhl=3.18 kva=112.0
~ wdg=1 bus=80492455001992.1.2.3 conn=delta kv=13.8
~ wdg=2 bus=80492455271487.1.2.3.0 conn=wye kv=0.38

new transformer.UNTRMT_5271488 phases=3 windings=2 %r=1.46 xhl=3.18 kva=112.0
~ wdg=1 bus=80486945001992.1.2.3 conn=delta kv=13.8
~ wdg=2 bus=80486945271488.1.2.3.0 conn=wye kv=0.38

new transformer.UNTRMT_5271489 phases=3 windings=2 %r=1.39 xhl=3.21 kva=150.0
~ wdg=1 bus=80487125001992.1.2.3 conn=delta kv=13.8
~ wdg=2 bus=80487125271489.1.2.3.0 conn=wye kv=0.38

new transformer.UNTRMT_5271490 phases=3 windings=2 %r=1.55 xhl=3.14 kva=75.0
~ wdg=1 bus=80491705001992.1.2.3 conn=delta kv=13.8
~ wdg=2 bus=80491705271490.1.2.3.0 conn=wye kv=0.38

new transformer.UNTRMT_5271491 phases=3 windings=2 %r=1.25 xhl=4.32 kva=300.0
~ wdg=1 bus=80493165001992.1.2.3 conn=delta kv=13.8
~ wdg=2 bus=80493165271491.1.2.3.0 conn=wye kv=0.38

new transformer.UNTRMT_5271492 phases=3 windings=2 %r=1.3 xhl=4.31 kva=225.0
~ wdg=1 bus=80493185001992.1.2.3 conn=delta kv=13.8
~ wdg=2 bus=80493185271492.1.2.3.0 conn=wye kv=0.38

new transformer.UNTRMT_5271493 phases=3 windings=2 %r=1.55 xhl=3.14 kva=75.0
~ wdg=1 bus=80493405001992.1.2.3 conn=delta kv=13.8
~ wdg=2 bus=80493405271493.1.2.3.0 conn=wye kv=0.38

new transformer.UNTRMT_5271494 phases=3 windings=2 %r=1.55 xhl=3.14 kva=75.0
~ wdg=1 bus=80494005001992.1.2.3 conn=delta kv=13.8
~ wdg=2 bus=80494005271494.1.2.3.0 conn=wye kv=0.38

new transformer.UNTRMT_5271495 phases=3 windings=2 %r=1.46 xhl=3.18 kva=112.0
~ wdg=1 bus=80494095001992.1.2.3 conn=delta kv=13.8
~ wdg=2 bus=80494095271495.1.2.3.0 conn=wye kv=0.38

new transformer.UNTRMT_5271496 phases=3 windings=2 %r=1.46 xhl=3.18 kva=112.0
~ wdg=1 bus=80493975001992.1.2.3 conn=delta kv=13.8
~ wdg=2 bus=80493975271496.1.2.3.0 conn=wye kv=0.38

new transformer.UNTRMT_5271497 phases=3 windings=2 %r=1.46 xhl=3.18 kva=112.0
~ wdg=1 bus=80494285001992.1.2.3 conn=delta kv=13.8
~ wdg=2 bus=80494285271497.1.2.3.0 conn=wye kv=0.38

new transformer.UNTRMT_5271501 phases=3 windings=2 %r=1.46 xhl=3.18 kva=112.0
~ wdg=1 bus=80491775001992.1.2.3 conn=delta kv=13.8
~ wdg=2 bus=80491775271501.1.2.3.0 conn=wye kv=0.38

new transformer.UNTRMT_5271502 phases=3 windings=2 %r=1.55 xhl=3.14 kva=75.0
~ wdg=1 bus=80492185001992.1.2.3 conn=delta kv=13.8
~ wdg=2 bus=80492185271502.1.2.3.0 conn=wye kv=0.38

new transformer.UNTRMT_5271503 phases=3 windings=2 %r=1.46 xhl=3.18 kva=112.0
~ wdg=1 bus=80486845001992.1.2.3 conn=delta kv=13.8
~ wdg=2 bus=80486845271503.1.2.3.0 conn=wye kv=0.38

new transformer.UNTRMT_5271504 phases=3 windings=2 %r=1.46 xhl=3.18 kva=112.0
~ wdg=1 bus=80485635001992.1.2.3 conn=delta kv=13.8
~ wdg=2 bus=80485635271504.1.2.3.0 conn=wye kv=0.38

new transformer.UNTRMT_5271505 phases=3 windings=2 %r=1.46 xhl=3.18 kva=112.0
~ wdg=1 bus=80486665001992.1.2.3 conn=delta kv=13.8
~ wdg=2 bus=80486665271505.1.2.3.0 conn=wye kv=0.38

new transformer.UNTRMT_5271506 phases=3 windings=2 %r=1.3 xhl=4.31 kva=225.0
~ wdg=1 bus=80486775001992.1.2.3 conn=delta kv=13.8
...